Version 4
SHEET 1 2320 680
WIRE -176 -528 -288 -528
WIRE 0 -528 -112 -528
WIRE -592 -384 -640 -384
WIRE -288 -384 -288 -528
WIRE -288 -384 -592 -384
WIRE -192 -384 -288 -384
WIRE -32 -384 -96 -384
WIRE 0 -384 0 -528
WIRE 0 -384 -32 -384
WIRE 592 -384 0 -384
WIRE 800 -384 592 -384
WIRE 848 -384 800 -384
WIRE 944 -384 848 -384
WIRE -32 -336 -32 -384
WIRE 240 -256 128 -256
WIRE 384 -256 304 -256
WIRE -112 -224 -112 -336
WIRE -32 -224 -32 -272
WIRE -32 -224 -112 -224
WIRE -320 -160 -352 -160
WIRE 32 -160 -320 -160
WIRE 128 -160 128 -256
WIRE 128 -160 32 -160
WIRE 208 -160 128 -160
WIRE 384 -160 384 -256
WIRE 384 -160 304 -160
WIRE 416 -160 384 -160
WIRE 592 -160 592 -384
WIRE 592 -160 416 -160
WIRE -640 -112 -640 -384
WIRE 32 -32 32 -160
WIRE 416 -32 416 -160
WIRE 800 -16 800 -384
WIRE 944 -16 944 -384
WIRE -352 16 -352 -160
WIRE 224 16 96 16
WIRE 352 16 224 16
WIRE -112 112 -112 -224
WIRE -64 112 -112 112
WIRE 32 112 32 64
WIRE 32 112 -64 112
WIRE 288 112 288 -112
WIRE 352 112 288 112
WIRE 416 112 416 64
WIRE 416 112 352 112
WIRE 32 144 32 112
WIRE 224 144 224 16
WIRE 416 144 416 112
WIRE -112 160 -112 112
WIRE -640 288 -640 -32
WIRE -352 288 -352 96
WIRE -352 288 -640 288
WIRE -112 288 -112 224
WIRE -112 288 -352 288
WIRE 32 288 32 224
WIRE 32 288 -112 288
WIRE 224 288 224 224
WIRE 224 288 32 288
WIRE 416 288 416 224
WIRE 416 288 224 288
WIRE 800 288 800 64
WIRE 800 288 416 288
WIRE 944 288 944 48
WIRE 944 288 800 288
WIRE 224 304 224 288
FLAG 224 304 0
FLAG -592 -384 VIN
FLAG -320 -160 VBAT
FLAG -64 112 GIN
FLAG 352 112 GBAT
FLAG 848 -384 VOUT
SYMBOL res 16 128 R0
SYMATTR InstName R1
SYMATTR Value 10K
SYMATTR SpiceLine tol=1
SYMBOL res 208 128 R0
SYMATTR InstName R2
SYMATTR Value 100K
SYMATTR SpiceLine tol=5
SYMBOL res 400 128 R0
SYMATTR InstName R3
SYMATTR Value 10K
SYMATTR SpiceLine tol=1
SYMBOL voltage -640 -128 R0
WINDOW 123 0 0 Left 2
WINDOW 39 24 44 Left 2
SYMATTR SpiceLine Rser=1
SYMATTR InstName VIN
SYMATTR Value PULSE(0 4.4 2m 1m 1m 4m 0 3)
SYMBOL pnp 352 64 M180
SYMATTR InstName Q1
SYMATTR Value ss9015
SYMBOL pnp 96 64 R180
SYMATTR InstName Q2
SYMATTR Value ss9015
SYMBOL pmos 208 -112 R270
WINDOW 3 71 58 VRight 2
SYMATTR Value FDN340P
SYMATTR InstName M1
SYMATTR Prefix M
SYMBOL pmos -192 -336 R270
WINDOW 3 76 52 VRight 2
SYMATTR InstName M2
SYMATTR Value FDN340P
SYMATTR Prefix M
SYMBOL Misc\\battery -352 0 R0
WINDOW 123 0 0 Left 2
WINDOW 39 24 132 Left 2
SYMATTR SpiceLine Rser=0.05
SYMATTR InstName VBAT
SYMATTR Value 3.7
SYMBOL schottky -176 -512 R270
WINDOW 0 32 32 VTop 2
WINDOW 3 0 32 VBottom 2
SYMATTR InstName D2
SYMATTR Value SS14
SYMATTR Prefix X
SYMATTR Description Diode
SYMATTR Type diode
SYMBOL schottky 240 -240 R270
WINDOW 0 32 32 VTop 2
WINDOW 3 0 32 VBottom 2
SYMATTR InstName D1
SYMATTR Value SS14
SYMATTR Prefix X
SYMATTR Description Diode
SYMATTR Type diode
SYMBOL current 800 -16 R0
WINDOW 123 0 0 Left 2
WINDOW 39 0 0 Left 2
SYMATTR InstName ILOAD
SYMATTR Value 0.3
SYMBOL cap 928 -16 R0
SYMATTR InstName C1
SYMATTR Value 220µF
SYMATTR SpiceLine Rser=500m
SYMBOL cap -48 -336 R0
SYMATTR InstName C2
SYMATTR Value 10n
SYMATTR SpiceLine Rser=20m
TEXT -872 -72 Left 2 !.tran 30m
TEXT -8 384 Left 2 !.lib http://www.aosmd.com/res/spice_models/AO3401.mod
TEXT -8 416 Left 2 !.lib http://www.vishay.com/docs/89656/ss14.txt
TEXT -944 456 Left 2 !.model FDN340P VDMOS(pchan Rg=1 Vto=-0.65 Rd=5m Rs=0.5m Rb=1.2m Kp=9.8 lambda=.02 Cgdmax=3n Cgdmin=.8n Cgs=650p Cjo=838p Is=82p mfg=Fairchild Vds=-20 Ron=70m)
